<?xml version="1.0" encoding="UTF-8"?>

<!-- generated on 2026-03-23 15:31:27 by Eclipse SUMO netconvert Version 1.24.0
<netconvertConfiguration xmlns:xsi="http://www.w3.org/2001/XMLSchema-instance" xsi:noNamespaceSchemaLocation="http://sumo.dlr.de/xsd/netconvertConfiguration.xsd">

    <input>
        <osm-files value="chaoyang.osm"/>
    </input>

    <output>
        <output-file value="chaoyang.net.xml"/>
    </output>

    <projection>
        <proj.utm value="true"/>
    </projection>

    <processing>
        <geometry.remove value="true"/>
    </processing>

    <tls_building>
        <tls.guess value="true"/>
    </tls_building>

    <ramp_guessing>
        <ramps.guess value="true"/>
    </ramp_guessing>

    <edge_removal>
        <keep-edges.by-vclass value="passenger"/>
        <remove-edges.isolated value="true"/>
    </edge_removal>

    <junctions>
        <junctions.join value="true"/>
    </junctions>

</netconvertConfiguration>
-->

<net version="1.20" junctionCornerDetail="5" limitTurnSpeed="5.50" xmlns:xsi="http://www.w3.org/2001/XMLSchema-instance" xsi:noNamespaceSchemaLocation="http://sumo.dlr.de/xsd/net_file.xsd">

    <location netOffset="-449690.24,-4417607.34" convBoundary="0.00,0.00,2825.28,3057.69" origBoundary="116.270888,39.897975,116.593644,39.947861" projParameter="+proj=utm +zone=50 +ellps=WGS84 +datum=WGS84 +units=m +no_defs"/>

    <type id="highway.living_street" priority="2" numLanes="1" speed="2.78" disallow="tram rail_urban rail rail_electric rail_fast ship container cable_car subway aircraft wheelchair scooter drone" oneway="0"/>
    <type id="highway.primary" priority="12" numLanes="2" speed="27.78" disallow="tram rail_urban rail rail_electric rail_fast ship container cable_car subway aircraft wheelchair scooter drone" oneway="0"/>
    <type id="highway.primary_link" priority="7" numLanes="1" speed="22.22" disallow="tram rail_urban rail rail_electric rail_fast ship container cable_car subway aircraft wheelchair scooter drone" oneway="0"/>
    <type id="highway.residential" priority="3" numLanes="1" speed="13.89" disallow="tram rail_urban rail rail_electric rail_fast ship container cable_car subway aircraft wheelchair scooter drone" oneway="0"/>
    <type id="highway.secondary" priority="11" numLanes="1" speed="27.78" disallow="tram rail_urban rail rail_electric rail_fast ship container cable_car subway aircraft wheelchair scooter drone" oneway="0"/>
    <type id="highway.tertiary" priority="10" numLanes="1" speed="22.22" disallow="tram rail_urban rail rail_electric rail_fast ship container cable_car subway aircraft wheelchair scooter drone" oneway="0"/>
    <type id="highway.tertiary_link" priority="5" numLanes="1" speed="22.22" disallow="tram rail_urban rail rail_electric rail_fast ship container cable_car subway aircraft wheelchair scooter drone" oneway="0"/>
    <type id="highway.trunk" priority="13" numLanes="2" speed="27.78" disallow="pedestrian bicycle tram rail_urban rail rail_electric rail_fast ship container cable_car subway aircraft wheelchair scooter drone" oneway="0"/>
    <type id="highway.trunk_link" priority="8" numLanes="1" speed="22.22" disallow="pedestrian bicycle tram rail_urban rail rail_electric rail_fast ship container cable_car subway aircraft wheelchair scooter drone" oneway="0"/>
    <type id="highway.unclassified" priority="4" numLanes="1" speed="13.89" disallow="tram rail_urban rail rail_electric rail_fast ship container cable_car subway aircraft wheelchair scooter drone" oneway="0"/>

    <edge id=":10006448509_0" function="internal">
        <lane id=":10006448509_0_0" index="0" disallow="tram rail_urban rail rail_electric rail_fast ship container cable_car subway aircraft wheelchair scooter drone" speed="6.43" length="9.03" shape="1255.97,2238.40 1253.50,2238.73 1251.77,2239.78 1250.75,2241.54 1250.47,2244.01"/>
    </edge>
    <edge id=":10006448509_1" function="internal">
        <lane id=":10006448509_1_0" index="0" disallow="tram rail_urban rail rail_electric rail_fast ship container cable_car subway aircraft wheelchair scooter drone" speed="3.65" length="4.67" shape="1255.97,2238.40 1254.77,2237.59 1254.38,2236.79 1254.79,2235.99 1255.99,2235.20"/>
    </edge>
    <edge id=":10006448509_2" function="internal">
        <lane id=":10006448509_2_0" index="0" disallow="tram rail_urban rail rail_electric rail_fast ship container cable_car subway aircraft wheelchair scooter drone" speed="6.68" length="9.24" shape="1249.99,2229.64 1250.45,2232.05 1251.60,2233.79 1253.45,2234.84 1255.99,2235.20"/>
    </edge>
    <edge id=":10006448509_3" function="internal">
        <lane id=":10006448509_3_0" index="0" disallow="tram rail_urban rail rail_electric rail_fast ship container cable_car subway aircraft wheelchair scooter drone" speed="22.22" length="14.39" shape="1249.99,2229.64 1250.47,2244.01"/>
    </edge>
    <edge id=":10006479819_0" function="internal">
        <lane id=":10006479819_0_0" index="0" disallow="tram rail_urban rail rail_electric rail_fast ship container cable_car subway aircraft wheelchair scooter drone" speed="6.46" length="9.03" shape="1243.64,1787.53 1241.18,1787.89 1239.45,1788.96 1238.44,1790.72 1238.14,1793.19"/>
    </edge>
    <edge id=":10006479819_1" function="internal">
        <lane id=":10006479819_1_0" index="0" disallow="tram rail_urban rail rail_electric rail_fast ship container cable_car subway aircraft wheelchair scooter drone" speed="22.22" length="9.19" shape="1243.64,1787.53 1234.44,1787.57"/>
    </edge>
    <edge id=":10006479833_0" function="internal">
        <lane id=":10006479833_0_0" index="0" disallow="tram rail_urban rail rail_electric rail_fast ship container cable_car subway aircraft wheelchair scooter drone" speed="22.22" length="0.10" shape="1269.09,2326.52 1269.09,2326.52"/>
    </edge>
    <edge id=":10006479833_1" function="internal">
        <lane id=":10006479833_1_0" index="0" disallow="tram rail_urban rail rail_electric rail_fast ship container cable_car subway aircraft wheelchair scooter drone" speed="22.22" length="0.10" shape="1269.16,2323.32 1269.16,2323.32"/>
    </edge>
    <edge id=":10006479834_0" function="internal">
        <lane id=":10006479834_0_0" index="0" disallow="tram rail_urban rail rail_electric rail_fast ship container cable_car subway aircraft wheelchair scooter drone" speed="22.22" length="0.30" shape="1252.03,2301.51 1252.04,2301.81"/>
    </edge>
    <edge id=":10007047091_0" function="internal">
        <lane id=":10007047091_0_0" index="0" disallow="tram rail_urban rail rail_electric rail_fast ship container cable_car subway aircraft wheelchair scooter drone" speed="3.65" length="4.67" shape="2254.48,2785.56 2253.69,2786.76 2252.89,2787.17 2252.09,2786.78 2251.28,2785.58"/>
    </edge>
    <edge id=":10007047092_0" function="internal">
        <lane id=":10007047092_0_0" index="0" disallow="tram rail_urban rail rail_electric rail_fast ship container cable_car subway aircraft wheelchair scooter drone" speed="22.22" length="0.10" shape="2251.10,2763.30 2251.10,2763.30"/>
    </edge>
    <edge id=":10007047092_1" function="internal">
        <lane id=":10007047092_1_0" index="0" disallow="tram rail_urban rail rail_electric rail_fast ship container cable_car subway aircraft wheelchair scooter drone" speed="22.22" length="0.10" shape="2254.30,2763.27 2254.30,2763.27"/>
    </edge>
    <edge id=":10007131654_0" function="internal">
        <lane id=":10007131654_0_0" index="0" disallow="tram rail_urban rail rail_electric rail_fast ship container cable_car subway aircraft wheelchair scooter drone" speed="22.22" length="8.41" shape="2246.80,2120.59 2246.27,2118.13 2245.15,2116.60 2244.03,2115.07 2243.52,2112.61"/>
        <lane id=":10007131654_0_1" index="1" disallow="tram rail_urban rail rail_electric rail_fast ship container cable_car subway aircraft wheelchair scooter drone" speed="22.22" length="8.41" shape="2246.80,2120.59 2246.72,2112.58"/>
    </edge>
    <edge id=":10007131654_2" function="internal">
        <lane id=":10007131654_2_0" index="0" disallow="tram rail_urban rail rail_electric rail_fast ship container cable_car subway aircraft wheelchair scooter drone" speed="22.22" length="8.79" shape="2253.12,2112.54 2252.63,2115.00 2251.55,2116.54 2250.47,2118.09 2250.00,2120.55"/>
    </edge>
    <edge id=":10007131656_0" function="internal">
        <lane id=":10007131656_0_0" index="0" disallow="tram rail_urban rail rail_electric rail_fast ship container cable_car subway aircraft wheelchair scooter drone" speed="22.22" length="0.30" shape="2222.23,2043.54 2221.93,2043.54"/>
    </edge>
    <edge id=":10007131656_1" function="internal">
        <lane id=":10007131656_1_0" index="0" disallow="tram rail_urban rail rail_electric rail_fast ship container cable_car subway aircraft wheelchair scooter drone" speed="22.22" length="0.30" shape="2221.94,2040.34 2222.24,2040.34"/>
    </edge>
    <edge id=":10007131657_0" function="internal">
        <lane id=":10007131657_0_0" index="0" disallow="tram rail_urban rail rail_electric rail_fast ship container cable_car subway aircraft wheelchair scooter drone" speed="22.22" length="0.10" shape="2275.86,2043.38 2275.86,2043.38"/>
    </edge>
    <edge id=":10007131657_1" function="internal">
        <lane id=":10007131657_1_0" index="0" disallow="tram rail_urban rail rail_electric rail_fast ship container cable_car subway aircraft wheelchair scooter drone" speed="22.22" length="0.10" shape="2275.83,2040.18 2275.83,2040.18"/>
    </edge>
    <edge id=":10048648397_0" function="internal">
        <lane id=":10048648397_0_0" index="0" disallow="tram rail_urban rail rail_electric rail_fast ship container cable_car subway aircraft wheelchair scooter drone" speed="25.00" length="14.44" shape="1413.89,1809.48 1412.62,1806.39 1411.10,1803.76 1409.08,1800.94 1406.30,1797.28"/>
    </edge>
    <edge id=":10048648397_1" function="internal">
        <lane id=":10048648397_1_0" index="0" disallow="tram rail_urban rail rail_electric rail_fast ship container cable_car subway aircraft wheelchair scooter drone" speed="12.16" length="12.36" shape="1417.93,1803.17 1413.94,1802.61 1411.17,1801.84 1408.87,1800.27 1406.30,1797.28"/>
        <lane id=":10048648397_1_1" index="1" disallow="tram rail_urban rail rail_electric rail_fast ship container cable_car subway aircraft wheelchair scooter drone" speed="11.00" length="12.36" shape="1418.37,1800.00 1415.12,1799.56 1412.84,1798.99 1410.95,1797.76 1408.85,1795.35"/>
    </edge>
    <edge id=":10048648399_0" function="internal">
        <lane id=":10048648399_0_0" index="0" disallow="tram rail_urban rail rail_electric rail_fast ship container cable_car subway aircraft wheelchair scooter drone" speed="27.78" length="0.30" shape="1377.55,1753.60 1377.85,1753.59"/>
        <lane id=":10048648399_0_1" index="1" disallow="tram rail_urban rail rail_electric rail_fast ship container cable_car subway aircraft wheelchair scooter drone" speed="27.78" length="0.30" shape="1377.66,1756.79 1377.96,1756.78"/>
    </edge>
    <edge id=":10048648400_0" function="internal">
        <lane id=":10048648400_0_0" index="0" disallow="tram rail_urban rail rail_electric rail_fast ship container cable_car subway aircraft wheelchair scooter drone" speed="23.03" length="13.51" shape="1495.44,1723.92 1496.60,1726.98 1497.99,1729.44 1499.90,1731.96 1502.68,1735.18"/>
    </edge>
    <edge id=":10048648400_1" function="internal">
        <lane id=":10048648400_1_0" index="0" disallow="tram rail_urban rail rail_electric rail_fast ship container cable_car subway aircraft wheelchair scooter drone" speed="16.42" length="12.98" shape="1490.86,1728.55 1494.81,1729.72 1497.52,1730.71 1499.86,1732.28 1502.68,1735.18"/>
        <lane id=":10048648400_1_1" index="1" disallow="tram rail_urban rail rail_electric rail_fast ship container cable_car subway aircraft wheelchair scooter drone" speed="15.36" length="12.98" shape="1489.90,1731.61 1493.35,1732.61 1495.74,1733.44 1497.80,1734.77 1500.27,1737.29"/>
    </edge>
    <edge id=":10048648401_0" function="internal">
        <lane id=":10048648401_0_0" index="0" disallow="tram rail_urban rail rail_electric rail_fast ship container cable_car subway aircraft wheelchair scooter drone" speed="27.78" length="0.61" shape="1484.88,1726.77 1485.15,1726.81 1485.34,1726.84 1485.52,1726.88 1485.78,1726.96"/>
        <lane id=":10048648401_0_1" index="1" disallow="tram rail_urban rail rail_electric rail_fast ship container cable_car subway aircraft wheelchair scooter drone" speed="27.78" length="0.61" shape="1484.52,1729.95 1484.61,1729.96 1484.68,1729.97 1484.74,1729.99 1484.82,1730.02"/>
    </edge>
    <edge id=":10048648402_0" function="internal">
        <lane id=":10048648402_0_0" index="0" disallow="pedestrian bicycle tram rail_urban rail rail_electric rail_fast ship container cable_car subway aircraft wheelchair scooter drone" speed="27.78" length="1.84" shape="1524.55,1782.02 1524.29,1782.07 1524.11,1782.13 1523.95,1782.23 1523.74,1782.40"/>
        <lane id=":10048648402_0_1" index="1" disallow="pedestrian bicycle tram rail_urban rail rail_electric rail_fast ship container cable_car subway aircraft wheelchair scooter drone" speed="7.34" length="1.84" shape="1524.05,1778.86 1523.25,1779.00 1522.71,1779.18 1522.23,1779.48 1521.62,1780.01"/>
    </edge>
    <edge id=":10048648403_0" function="internal">
        <lane id=":10048648403_0_0" index="0" disallow="tram rail_urban rail rail_electric rail_fast ship container cable_car subway aircraft wheelchair scooter drone" speed="27.78" length="1.00" shape="1393.12,1758.59 1393.03,1759.43"/>
        <lane id=":10048648403_0_1" index="1" disallow="tram rail_urban rail rail_electric rail_fast ship container cable_car subway aircraft wheelchair scooter drone" speed="27.78" length="1.00" shape="1396.32,1758.54 1396.22,1759.69"/>
    </edge>
    <edge id=":10048648408_0" function="internal">
        <lane id=":10048648408_0_0" index="0" disallow="tram rail_urban rail rail_electric rail_fast ship container cable_car subway aircraft wheelchair scooter drone" speed="22.22" length="3.24" shape="1463.37,2226.69 1463.23,2229.93"/>
    </edge>
    <edge id=":10048648408_1" function="internal">
        <lane id=":10048648408_1_0" index="0" disallow="pedestrian bicycle tram rail_urban rail rail_electric rail_fast ship container cable_car subway aircraft wheelchair scooter drone" speed="22.22" length="3.19" shape="1460.17,2226.59 1460.13,2227.54 1460.09,2228.18 1460.01,2228.83 1459.87,2229.77"/>
    </edge>
    <edge id=":10048650740_0" function="internal">
        <lane id=":10048650740_0_0" index="0" disallow="tram rail_urban rail rail_electric rail_fast ship container cable_car subway aircraft wheelchair scooter drone" speed="22.22" length="0.10" shape="1461.27,2727.25 1461.27,2727.25"/>
    </edge>
    <edge id=":100634912_0" function="internal">
        <lane id=":100634912_0_0" index="0" disallow="tram rail_urban rail rail_electric rail_fast ship container cable_car subway aircraft wheelchair scooter drone" speed="6.11" length="9.06" shape="2437.33,1525.19 2436.74,1522.70 2435.51,1521.17 2433.63,1520.59 2431.09,1520.97"/>
    </edge>
    <edge id=":100634912_1" function="internal">
        <lane id=":100634912_1_0" index="0" disallow="tram rail_urban rail rail_electric rail_fast ship container cable_car subway aircraft wheelchair scooter drone" speed="8.07" length="14.82" shape="2437.33,1525.19 2437.52,1520.98 2438.94,1517.91 2441.57,1515.96 2445.44,1515.15"/>
    </edge>
    <edge id=":100634912_2" function="internal">
        <lane id=":100634912_2_0" index="0" disallow="tram rail_urban rail rail_electric rail_fast ship container cable_car subway aircraft wheelchair scooter drone" speed="3.65" length="4.67" shape="2437.33,1525.19 2438.02,1523.93 2438.78,1523.46 2439.62,1523.79 2440.52,1524.91"/>
    </edge>
    <edge id=":100634912_3" function="internal">
        <lane id=":100634912_3_0" index="0" disallow="tram rail_urban rail rail_electric rail_fast ship container cable_car subway aircraft wheelchair scooter drone" speed="6.59" length="9.54" shape="2445.61,1518.35 2443.18,1518.87 2441.52,1520.14 2440.63,1522.16 2440.52,1524.91"/>
    </edge>
    <edge id=":100634912_4" function="internal">
        <lane id=":100634912_4_0" index="0" disallow="tram rail_urban rail rail_electric rail_fast ship container cable_car subway aircraft wheelchair scooter drone" speed="22.22" length="14.79" shape="2445.61,1518.35 2441.91,1518.67 2438.28,1519.22 2434.68,1519.99 2431.09,1520.97"/>
    </edge>
    <edge id=":100634912_5" function="internal">
        <lane id=":100634912_5_0" index="0" disallow="tram rail_urban rail rail_electric rail_fast ship container cable_car subway aircraft wheelchair scooter drone" speed="3.65" length="1.44" shape="2445.61,1518.35 2444.37,1517.61"/>
    </edge>
    <edge id=":100634912_9" function="internal">
        <lane id=":100634912_9_0" index="0" disallow="tram rail_urban rail rail_electric rail_fast ship container cable_car subway aircraft wheelchair scooter drone" speed="3.65" length="3.23" shape="2444.37,1517.61 2443.93,1516.84 2444.28,1516.02 2445.44,1515.15"/>
    </edge>
    <edge id=":100634912_6" function="internal">
        <lane id=":100634912_6_0" index="0" disallow="tram rail_urban rail rail_electric rail_fast ship container cable_car subway aircraft wheelchair scooter drone" speed="22.22" length="15.54" shape="2430.17,1517.91 2433.87,1516.91 2437.73,1516.09 2441.62,1515.50 2445.44,1515.15"/>
    </edge>
    <edge id=":100634912_7" function="internal">
        <lane id=":100634912_7_0" index="0" disallow="tram rail_urban rail rail_electric rail_fast ship container cable_car subway aircraft wheelchair scooter drone" speed="7.68" length="4.53" shape="2430.17,1517.91 2434.37,1517.27 2434.64,1517.36"/>
    </edge>
    <edge id=":100634912_8" function="internal">
        <lane id=":100634912_8_0" index="0" disallow="tram rail_urban rail rail_electric rail_fast ship container cable_car subway aircraft wheelchair scooter drone" speed="3.65" length="1.44" shape="2430.17,1517.91 2431.55,1518.33"/>
    </edge>
    <edge id=":100634912_10" function="internal">
        <lane id=":100634912_10_0" index="0" disallow="tram rail_urban rail rail_electric rail_fast ship container cable_car subway aircraft wheelchair scooter drone" speed="7.68" length="10.50" shape="2434.64,1517.36 2437.50,1518.23 2439.55,1520.78 2440.52,1524.91"/>
    </edge>
    <edge id=":100634912_11" function="internal">
        <lane id=":100634912_11_0" index="0" disallow="tram rail_urban rail rail_electric rail_fast ship container cable_car subway aircraft wheelchair scooter drone" speed="3.65" length="3.23" shape="2431.55,1518.33 2432.16,1518.98 2432.01,1519.86 2431.09,1520.97"/>
    </edge>
    <edge id=":1038256883_0" function="internal">
        <lane id=":1038256883_0_0" index="0" disallow="tram rail_urban rail rail_electric rail_fast ship container cable_car subway aircraft wheelchair scooter drone" speed="7.51" length="10.36" shape="1978.84,2122.98 1975.78,2123.35 1973.44,2124.35 1971.83,2125.99 1970.95,2128.26"/>
    </edge>
    <edge id=":1038256883_1" function="internal">
        <lane id=":1038256883_1_0" index="0" disallow="tram rail_urban rail rail_electric rail_fast ship container cable_car subway aircraft wheelchair scooter drone" speed="7.62" length="15.26" shape="1978.84,2122.98 1974.52,2122.43 1971.79,2120.61 1970.63,2117.54 1971.05,2113.22"/>
    </edge>
    <edge id=":1038256883_2" function="internal">
        <lane id=":1038256883_2_0" index="0" disallow="tram rail_urban rail rail_electric rail_fast ship container cable_car subway aircraft wheelchair scooter drone" speed="3.65" length="4.67" shape="1978.84,2122.98 1977.62,2122.20 1977.21,2121.40 1977.60,2120.60 1978.79,2119.78"/>
    </edge>
    <edge id=":1038256883_3" function="internal">
        <lane id=":1038256883_3_0" index="0" disallow="tram rail_urban rail rail_electric rail_fast ship container cable_car subway aircraft wheelchair scooter drone" speed="6.03" length="9.07" shape="1974.16,2113.97 1973.91,2116.55 1974.60,2118.37 1976.23,2119.45 1978.79,2119.78"/>
    </edge>
    <edge id=":1038256883_4" function="internal">
        <lane id=":1038256883_4_0" index="0" disallow="tram rail_urban rail rail_electric rail_fast ship container cable_car subway aircraft wheelchair scooter drone" speed="22.22" length="14.65" shape="1974.16,2113.97 1970.95,2128.26"/>
    </edge>
    <edge id=":1038256883_5" function="internal">
        <lane id=":1038256883_5_0" index="0" disallow="tram rail_urban rail rail_electric rail_fast ship container cable_car subway aircraft wheelchair scooter drone" speed="3.65" length="1.44" shape="1974.16,2113.97 1973.10,2114.95"/>
    </edge>
    <edge id=":1038256883_9" function="internal">
        <lane id=":1038256883_9_0" index="0" disallow="tram rail_urban rail rail_electric rail_fast ship container cable_car subway aircraft wheelchair scooter drone" speed="3.65" length="3.23" shape="1973.10,2114.95 1972.22,2115.15 1971.54,2114.57 1971.05,2113.22"/>
    </edge>
    <edge id=":1038256883_6" function="internal">
        <lane id=":1038256883_6_0" index="0" disallow="tram rail_urban rail rail_electric rail_fast ship container cable_car subway aircraft wheelchair scooter drone" speed="22.22" length="14.77" shape="1967.81,2127.63 1971.05,2113.22"/>
    </edge>
    <edge id=":1038256883_7" function="internal">
        <lane id=":1038256883_7_0" index="0" disallow="tram rail_urban rail rail_electric rail_fast ship container cable_car subway aircraft wheelchair scooter drone" speed="8.86" length="3.90" shape="1967.81,2127.63 1969.08,2124.25 1969.28,2124.03"/>
    </edge>
    <edge id=":1038256883_8" function="internal">
        <lane id=":1038256883_8_0" index="0" disallow="tram rail_urban rail rail_electric rail_fast ship container cable_car subway aircraft wheelchair scooter drone" speed="3.65" length="1.44" shape="1967.81,2127.63 1968.83,2126.61"/>
    </edge>
    <edge id=":1038256883_10" function="internal">
        <lane id=":1038256883_10_0" index="0" disallow="tram rail_urban rail rail_electric rail_fast ship container cable_car subway aircraft wheelchair scooter drone" speed="8.86" length="10.84" shape="1969.28,2124.03 1971.33,2121.81 1974.57,2120.32 1978.79,2119.78"/>
    </edge>
    <edge id=":1038256883_11" function="internal">
        <lane id=":1038256883_11_0" index="0" disallow="tram rail_urban rail rail_electric rail_fast ship container cable_car subway aircraft wheelchair scooter drone" speed="3.65" length="3.23" shape="1968.83,2126.61 1969.69,2126.38 1970.40,2126.93 1970.95,2128.26"/>
    </edge>
    <edge id=":1066854248#0-AddedOnRampNode_0" function="internal">
        <lane id=":1066854248#0-AddedOnRampNode_0_0" index="0" disallow="pedestrian bicycle tram rail_urban rail rail_electric rail_fast ship container cable_car subway aircraft wheelchair scooter drone" speed="27.78" length="8.00" shape="1457.77,1284.46 1458.00,1276.46"/>
        <lane id=":1066854248#0-AddedOnRampNode_0_1" index="1" disallow="pedestrian bicycle tram rail_urban rail rail_electric rail_fast ship container cable_car subway aircraft wheelchair scooter drone" speed="27.78" length="8.00" shape="1460.97,1284.55 1461.20,1276.56"/>
        <lane id=":1066854248#0-AddedOnRampNode_0_2" index="2" disallow="pedestrian bicycle tram rail_urban rail rail_electric rail_fast ship container cable_car subway aircraft wheelchair scooter drone" speed="27.78" length="8.00" shape="1464.17,1284.64 1464.40,1276.65"/>
    </edge>
    <edge id=":1072921775-AddedOnRampNode_0" function="internal">
        <lane id=":1072921775-AddedOnRampNode_0_0" index="0" disallow="pedestrian bicycle tram rail_urban rail rail_electric rail_fast ship container cable_car subway aircraft wheelchair scooter drone" speed="27.78" length="8.00" shape="1448.75,2365.06 1448.61,2373.06"/>
        <lane id=":1072921775-AddedOnRampNode_0_1" index="1" disallow="pedestrian bicycle tram rail_urban rail rail_electric rail_fast ship container cable_car subway aircraft wheelchair scooter drone" speed="27.78" length="8.00" shape="1445.55,2365.00 1445.41,2373.00"/>
        <lane id=":1072921775-AddedOnRampNode_0_2" index="2" disallow="pedestrian bicycle tram rail_urban rail rail_electric rail_fast ship container cable_car subway aircraft wheelchair scooter drone" speed="27.78" length="8.00" shape="1442.36,2364.94 1442.21,2372.94"/>
    </edge>
    <edge id=":1189487789_0" function="internal">
        <lane id=":1189487789_0_0" index="0" disallow="tram rail_urban rail rail_electric rail_fast ship container cable_car subway aircraft wheelchair scooter drone" speed="3.65" length="4.67" shape="1385.10,1187.87 1384.29,1189.07 1383.49,1189.46 1382.69,1189.06 1381.90,1187.85"/>
    </edge>
    <edge id=":1192323467_0" function="internal">
        <lane id=":1192323467_0_0" index="0" disallow="tram rail_urban rail rail_electric rail_fast ship container cable_car subway aircraft wheelchair scooter drone" speed="22.22" length="4.31" shape="1490.51,1317.84 1490.63,1319.11 1490.71,1319.99 1490.73,1320.86 1490.69,1322.14"/>
    </edge>
    <edge id=":1192323467_1" function="internal">
        <lane id=":1192323467_1_0" index="0" disallow="pedestrian bicycle tram rail_urban rail rail_electric rail_fast ship container cable_car subway aircraft wheelchair scooter drone" speed="22.22" length="3.83" shape="1487.27,1318.20 1487.42,1319.33 1487.50,1320.10 1487.52,1320.88 1487.49,1322.01"/>
    </edge>
    <edge id=":1192323479_0" function="internal">
        <lane id=":1192323479_0_0" index="0" disallow="tram rail_urban rail rail_electric rail_fast ship container cable_car subway aircraft wheelchair scooter drone" speed="22.22" length="0.55" shape="1492.12,1713.43 1492.11,1713.60 1492.12,1713.71 1492.15,1713.82 1492.20,1713.98"/>
    </edge>
    <edge id=":1192323484_0" function="internal">
        <lane id=":1192323484_0_0" index="0" disallow="pedestrian bicycle tram rail_urban rail rail_electric rail_fast ship container cable_car subway aircraft wheelchair scooter drone" speed="25.00" length="2.97" shape="1484.51,1235.51 1484.45,1238.48"/>
    </edge>
    <edge id=":1192323484_1" function="internal">
        <lane id=":1192323484_1_0" index="0" disallow="pedestrian bicycle tram rail_urban rail rail_electric rail_fast ship container cable_car subway aircraft wheelchair scooter drone" speed="27.78" length="3.01" shape="1481.31,1235.44 1481.23,1238.43"/>
        <lane id=":1192323484_1_1" index="1" disallow="pedestrian bicycle tram rail_urban rail rail_electric rail_fast ship container cable_car subway aircraft wheelchair scooter drone" speed="27.78" length="3.01" shape="1478.11,1235.37 1478.03,1238.38"/>
        <lane id=":1192323484_1_2" index="2" disallow="pedestrian bicycle tram rail_urban rail rail_electric rail_fast ship container cable_car subway aircraft wheelchair scooter drone" speed="27.78" length="3.01" shape="1474.91,1235.29 1474.83,1238.33"/>
    </edge>
    <edge id=":1192323485_0" function="internal">
        <lane id=":1192323485_0_0" index="0" disallow="tram rail_urban rail rail_electric rail_fast ship container cable_car subway aircraft wheelchair scooter drone" speed="22.36" length="13.60" shape="1502.82,1799.95 1499.41,1802.53 1497.00,1804.63 1495.14,1806.79 1493.38,1809.56"/>
    </edge>
    <edge id=":1192323485_1" function="internal">
        <lane id=":1192323485_1_0" index="0" disallow="tram rail_urban rail rail_electric rail_fast ship container cable_car subway aircraft wheelchair scooter drone" speed="17.89" length="13.16" shape="1502.82,1799.95 1499.42,1802.21 1496.79,1803.28 1493.93,1803.76 1489.81,1804.23"/>
        <lane id=":1192323485_1_1" index="1" disallow="tram rail_urban rail rail_electric rail_fast ship container cable_car subway aircraft wheelchair scooter drone" speed="16.83" length="13.16" shape="1500.92,1797.38 1497.91,1799.36 1495.58,1800.27 1493.04,1800.66 1489.39,1801.06"/>
    </edge>
    <edge id=":1192323490_0" function="internal">
        <lane id=":1192323490_0_0" index="0" disallow="tram rail_urban rail rail_electric rail_fast ship container cable_car subway aircraft wheelchair scooter drone" speed="22.22" length="0.30" shape="1463.40,2225.70 1463.39,2226.00"/>
        <lane id=":1192323490_0_1" index="1" disallow="tram rail_urban rail rail_electric rail_fast ship container cable_car subway aircraft wheelchair scooter drone" speed="22.22" length="0.30" shape="1460.20,2225.59 1460.19,2225.89"/>
    </edge>
    <edge id=":1192323496_0" function="internal">
        <lane id=":1192323496_0_0" index="0" disallow="tram rail_urban rail rail_electric rail_fast ship container cable_car subway aircraft wheelchair scooter drone" speed="22.22" length="3.46" shape="1461.04,643.34 1461.24,639.88"/>
    </edge>
    <edge id=":1192323496_1" function="internal">
        <lane id=":1192323496_1_0" index="0" disallow="pedestrian bicycle tram rail_urban rail rail_electric rail_fast ship container cable_car subway aircraft wheelchair scooter drone" speed="22.22" length="3.38" shape="1464.24,643.47 1464.29,642.47 1464.36,641.78 1464.51,641.11 1464.78,640.15"/>
    </edge>
    <edge id=":1192323499_0" function="internal">
        <lane id=":1192323499_0_0" index="0" disallow="pedestrian bicycle tram rail_urban rail rail_electric rail_fast ship container cable_car subway aircraft wheelchair scooter drone" speed="25.00" length="3.21" shape="1429.79,2272.55 1429.82,2271.60 1429.82,2270.95 1429.78,2270.30 1429.69,2269.35"/>
    </edge>
    <edge id=":1192323499_1" function="internal">
        <lane id=":1192323499_1_0" index="0" disallow="pedestrian bicycle tram rail_urban rail rail_electric rail_fast ship container cable_car subway aircraft wheelchair scooter drone" speed="27.78" length="3.24" shape="1432.99,2272.66 1433.09,2269.44"/>